generated/mvlv1004.m
function mpc = mvlv1004
%MVLV1004  Synthetic radial MV/LV distribution grid, balanced.
%   Generated by benchmark-grids/scripts/generate_distribution.py (seed 42):
%   gridoxide 0.0.2 generate_grid, exported by pgm_to_matpower.py
%   (see its docstring for every modelling decision) - PROVENANCE.md.

%% MATPOWER Case Format : Version 2
mpc.version = '2';

mpc.baseMVA = 100;

%% bus data
%	bus_i	type	Pd	Qd	Gs	Bs	area	Vm	Va	baseKV	zone	Vmax	Vmin
mpc.bus = [
	2613	3	0	0	0	0	1	1.05	0	150	1	1.1	0.9;
	1	1	0	0	0.08	-1.19733036377	1	1	0	150	1	1.1	0.9;
	3	1	0	0	0.0800574602321	-1.19733036377	1	1	0	10.5	1	1.1	0.9;
	12	1	0.728009381878	0.546007036409	5.29678413666e-06	0	1	1	0	10.5	1	1.1	0.9;
	15	1	0.877013678294	0.65776025872	4.68443195156e-06	0	1	1	0	10.5	1	1.1	0.9;
	18	1	0.64953511022	0.487151332665	4.78764515174e-06	0	1	1	0	10.5	1	1.1	0.9;
	21	1	0.81959842014	0.614698815105	5.41158810205e-06	0	1	1	0	10.5	1	1.1	0.9;
	24	1	0.710540999053	0.53290574929	5.46205124936e-06	0	1	1	0	10.5	1	1.1	0.9;
	27	1	0.882818357482	0.662113768111	5.5155348188e-06	0	1	1	0	10.5	1	1.1	0.9;
	30	1	0.68975343994	0.517315079955	5.32048622307e-06	0	1	1	0	10.5	1	1.1	0.9;
	33	1	0.754873401755	0.566155051316	5.2158428044e-06	0	1	1	0	10.5	1	1.1	0.9;
	36	1	0.873514171742	0.655135628807	5.24090920996e-06	0	1	1	0	10.5	1	1.1	0.9;
	39	1	0.665216063385	0.498912047539	2.35505933932e-06	0	1	1	0	10.5	1	1.1	0.9;
	42	1	0.915746208099	0.686809656075	5.56581324392e-06	0	1	1	0	10.5	1	1.1	0.9;
	45	1	0.851604261942	0.638703196456	5.73851346256e-06	0	1	1	0	10.5	1	1.1	0.9;
	48	1	0.917274773362	0.687956080021	5.83348277972e-06	0	1	1	0	10.5	1	1.1	0.9;
	51	1	0.75674629727	0.567559722953	5.13527433852e-06	0	1	1	0	10.5	1	1.1	0.9;
	54	1	0.864582500307	0.64843687523	5.54543375362e-06	0	1	1	0	10.5	1	1.1	0.9;
	57	1	0.694764367423	0.521073275568	5.42300523243e-06	0	1	1	0	10.5	1	1.1	0.9;
	60	1	0.726383304571	0.544787478428	5.46747967584e-06	0	1	1	0	10.5	1	1.1	0.9;
	63	1	0.743770475013	0.55782785626	5.45000885622e-06	0	1	1	0	10.5	1	1.1	0.9;
	66	1	0.740944975379	0.555708731534	4.76064227183e-06	0	1	1	0	10.5	1	1.1	0.9;
	69	1	0.821497616473	0.616123212355	2.29006817431e-06	0	1	1	0	10.5	1	1.1	0.9;
	72	1	0.766602208339	0.574951656255	5.29076024037e-06	0	1	1	0	10.5	1	1.1	0.9;
	75	1	0.718920802462	0.539190601847	5.53936336231e-06	0	1	1	0	10.5	1	1.1	0.9;
	78	1	0.777098824734	0.582824118551	5.47347023021e-06	0	1	1	0	10.5	1	1.1	0.9;
	81	1	0.959212034078	0.719409025559	5.42308285004e-06	0	1	1	0	10.5	1	1.1	0.9;
	84	1	0.915552931093	0.68666469832	5.67583800718e-06	0	1	1	0	10.5	1	1.1	0.9;
	87	1	0.775091189376	0.581318392032	5.55530615864e-06	0	1	1	0	10.5	1	1.1	0.9;
	90	1	0.789775964091	0.592331973068	5.93617239425e-06	0	1	1	0	10.5	1	1.1	0.9;
	93	1	0.643673927022	0.482755445266	5.63667791804e-06	0	1	1	0	10.5	1	1.1	0.9;
	96	1	0.880280895869	0.660210671902	4.93741423068e-06	0	1	1	0	10.5	1	1.1	0.9;
	99	1	0.69061048139	0.517957861043	2.59374258457e-06	0	1	1	0	10.5	1	1.1	0.9;
	102	1	0.72428449624	0.54321337218	6.3351049106e-06	0	1	1	0	10.5	1	1.1	0.9;
	105	1	0.674051463295	0.505538597471	5.60872176373e-06	0	1	1	0	10.5	1	1.1	0.9;
	108	1	0.83487046766	0.626152850745	5.17862687012e-06	0	1	1	0	10.5	1	1.1	0.9;
	111	1	0.945119919249	0.708839939437	5.8658602609e-06	0	1	1	0	10.5	1	1.1	0.9;
	114	1	0.796353826569	0.597265369927	6.48120145238e-06	0	1	1	0	10.5	1	1.1	0.9;
	117	1	0.906132969396	0.679599727047	5.72858351579e-06	0	1	1	0	10.5	1	1.1	0.9;
	120	1	0.82155422198	0.616165666485	4.79374778858e-06	0	1	1	0	10.5	1	1.1	0.9;
	123	1	0.66214800591	0.496611004432	5.37716545681e-06	0	1	1	0	10.5	1	1.1	0.9;
	126	1	0.792090360992	0.594067770744	5.4652502272e-06	0	1	1	0	10.5	1	1.1	0.9;
	129	1	0.834110053594	0.625582540196	2.3997268834e-06	0	1	1	0	10.5	1	1.1	0.9;
	132	1	0.860757642272	0.645568231704	5.80847239798e-06	0	1	1	0	10.5	1	1.1	0.9;
	135	1	0.847960978445	0.635970733833	5.7759982848e-06	0	1	1	0	10.5	1	1.1	0.9;
	138	1	0.719329796373	0.53949734728	5.80522476867e-06	0	1	1	0	10.5	1	1.1	0.9;
	141	1	0.713636714431	0.535227535823	4.81610399444e-06	0	1	1	0	10.5	1	1.1	0.9;
	144	1	0.6588396054	0.49412970405	5.44491133895e-06	0	1	1	0	10.5	1	1.1	0.9;
	147	1	0.662674351964	0.497005763973	5.74559270289e-06	0	1	1	0	10.5	1	1.1	0.9;
	150	1	0.812554858046	0.609416143535	5.77894775703e-06	0	1	1	0	10.5	1	1.1	0.9;
	153	1	0.79125472842	0.593441046315	6.36528883592e-06	0	1	1	0	10.5	1	1.1	0.9;
	156	1	0.671017860553	0.503263395415	5.72109507542e-06	0	1	1	0	10.5	1	1.1	0.9;
	159	1	0.916427759478	0.687320819609	2.60939486188e-06	0	1	1	0	10.5	1	1.1	0.9;
	162	1	0.671493718769	0.503620289076	5.98686012908e-06	0	1	1	0	10.5	1	1.1	0.9;
	165	1	0.674966090318	0.506224567739	5.45135269816e-06	0	1	1	0	10.5	1	1.1	0.9;
	168	1	0.775002124747	0.58125159356	5.15698995438e-06	0	1	1	0	10.5	1	1.1	0.9;
	171	1	0.66412316428	0.49809237321	5.05468869073e-06	0	1	1	0	10.5	1	1.1	0.9;
	174	1	0.812988140192	0.609741105144	5.61592384174e-06	0	1	1	0	10.5	1	1.1	0.9;
	177	1	0.911582635013	0.683686976259	5.95785692349e-06	0	1	1	0	10.5	1	1.1	0.9;
	180	1	0.91668812609	0.687516094567	5.06634234774e-06	0	1	1	0	10.5	1	1.1	0.9;
	183	1	0	0	0.000504686560293	-0.00748331477355	1	1	0	10.5	1	1.1	0.9;
	185	1	0	0	0.000453515106122	-0.00678758709619	1	1	0	0.4	1	1.1	0.9;
	187	1	0	0	1.55333818684e-10	0	1	1	0	0.4	1	1.1	0.9;
	188	1	1.85675290453e-09	1.3925646784e-09	8.16918800419e-11	0	1	1	0	0.4	1	1.1	0.9;
	192	1	0	0	1.44017221125e-10	0	1	1	0	0.4	1	1.1	0.9;
	193	1	1.85557435232e-09	1.39168076424e-09	6.89819283174e-11	0	1	1	0	0.4	1	1.1	0.9;
	197	1	0	0	1.09529588236e-10	0	1	1	0	0.4	1	1.1	0.9;
	198	1	1.47846726561e-09	1.10885044921e-09	3.39276046681e-11	0	1	1	0	0.4	1	1.1	0.9;
	202	1	0	0	1.01025711352e-10	0	1	1	0	0.4	1	1.1	0.9;
	203	1	1.54240320651e-09	1.15680240488e-09	2.55667971009e-11	0	1	1	0	0.4	1	1.1	0.9;
	207	1	0	0	1.47197267609e-10	0	1	1	0	0.4	1	1.1	0.9;
	208	1	1.68741742351e-09	1.26556306764e-09	8.12294920851e-11	0	1	1	0	0.4	1	1.1	0.9;
	212	1	0	0	9.85743136763e-11	0	1	1	0	0.4	1	1.1	0.9;
	213	1	1.7300234043e-09	1.29751755323e-09	3.36635073548e-11	0	1	1	0	0.4	1	1.1	0.9;
	217	1	0	0	1.46995972847e-10	0	1	1	0	0.4	1	1.1	0.9;
	218	1	1.71311694009e-09	1.28483770507e-09	8.26695783203e-11	0	1	1	0	0.4	1	1.1	0.9;
	222	1	0	0	8.99912335835e-11	0	1	1	0	0.4	1	1.1	0.9;
	223	1	1.77158210965e-09	1.32868658224e-09	2.69301641623e-11	0	1	1	0	0.4	1	1.1	0.9;
	227	1	0	0	1.04853758334e-10	0	1	1	0	0.4	1	1.1	0.9;
	228	1	1.77981731651e-09	1.33486298738e-09	3.85228498689e-11	0	1	1	0	0.4	1	1.1	0.9;
	232	1	0	0	1.05300517968e-10	0	1	1	0	0.4	1	1.1	0.9;
	233	1	1.76366719256e-09	1.32275039442e-09	3.01006288494e-11	0	1	1	0	0.4	1	1.1	0.9;
	237	1	0	0	1.68064163003e-10	0	1	1	0	0.4	1	1.1	0.9;
	238	1	1.33954363792e-09	1.00465772844e-09	8.22894821361e-11	0	1	1	0	0.4	1	1.1	0.9;
	242	1	0	0	1.1220063994e-10	0	1	1	0	0.4	1	1.1	0.9;
	243	1	1.47543620818e-09	1.10657715613e-09	2.63645637404e-11	0	1	1	0	0.4	1	1.1	0.9;
	247	1	0	0	1.52431310708e-10	0	1	1	0	0.4	1	1.1	0.9;
	248	1	1.91951349499e-09	1.43963512124e-09	7.87315683008e-11	0	1	1	0	0.4	1	1.1	0.9;
	252	1	0	0	1.43522881198e-10	0	1	1	0	0.4	1	1.1	0.9;
	253	1	1.80235995006e-09	1.35176996254e-09	7.56762416416e-11	0	1	1	0	0.4	1	1.1	0.9;
	257	1	0	0	1.4407546446e-10	0	1	1	0	0.4	1	1.1	0.9;
	258	1	1.70306818833e-09	1.27730114124e-09	6.49200587904e-11	0	1	1	0	0.4	1	1.1	0.9;
	262	1	0	0	1.09828862105e-10	0	1	1	0	0.4	1	1.1	0.9;
	263	1	1.41028578028e-09	1.05771433521e-09	3.03219253313e-11	0	1	1	0	0.4	1	1.1	0.9;
	267	1	0	0	1.0813581214e-10	0	1	1	0	0.4	1	1.1	0.9;
	268	1	1.73655321802e-09	1.30241491352e-09	3.92738888888e-11	0	1	1	0	0.4	1	1.1	0.9;
	272	1	0	0	1.36698985254e-10	0	1	1	0	0.4	1	1.1	0.9;
	273	1	1.50932260109e-09	1.13199195082e-09	6.27397147818e-11	0	1	1	0	0.4	1	1.1	0.9;
	277	1	0	0	1.48127736644e-10	0	1	1	0	0.4	1	1.1	0.9;
	278	1	1.39486564514e-09	1.04614923386e-09	7.64776141083e-11	0	1	1	0	0.4	1	1.1	0.9;
	282	1	0	0	1.12517242899e-10	0	1	1	0	0.4	1	1.1	0.9;
	283	1	1.42054644047e-09	1.06540983035e-09	4.32427880951e-11	0	1	1	0	0.4	1	1.1	0.9;
	287	1	0	0	1.27111979179e-10	0	1	1	0	0.4	1	1.1	0.9;
	288	1	1.61845794599e-09	1.21384345949e-09	5.73864799207e-11	0	1	1	0	0.4	1	1.1	0.9;
	292	1	0	0	1.4995404035e-10	0	1	1	0	0.4	1	1.1	0.9;
	293	1	1.93595238104e-09	1.45196428578e-09	7.88769593641e-11	0	1	1	0	0.4	1	1.1	0.9;
	297	1	0	0	1.3383582361e-10	0	1	1	0	0.4	1	1.1	0.9;
	298	1	1.43206252371e-09	1.07404689278e-09	5.93855179271e-11	0	1	1	0	0.4	1	1.1	0.9;
	302	1	0	0	1.45315829324e-10	0	1	1	0	0.4	1	1.1	0.9;
	303	1	1.86408153659e-09	1.39806115244e-09	7.99063398017e-11	0	1	1	0	0.4	1	1.1	0.9;
	307	1	0	0	1.12838994532e-10	0	1	1	0	0.4	1	1.1	0.9;
	308	1	1.40186241445e-09	1.05139681084e-09	3.77942826778e-11	0	1	1	0	0.4	1	1.1	0.9;
	312	1	0	0	1.56347692781e-10	0	1	1	0	0.4	1	1.1	0.9;
	313	1	1.95050921505e-09	1.46288191128e-09	7.02121387493e-11	0	1	1	0	0.4	1	1.1	0.9;
	317	1	0	0	1.56887287994e-10	0	1	1	0	0.4	1	1.1	0.9;
	318	1	1.92094413644e-09	1.44070810233e-09	7.41866003054e-11	0	1	1	0	0.4	1	1.1	0.9;
	322	1	0	0	1.23459344811e-10	0	1	1	0	0.4	1	1.1	0.9;
	323	1	1.95387725737e-09	1.46540794302e-09	4.31538844838e-11	0	1	1	0	0.4	1	1.1	0.9;
	327	1	0	0	1.21183000927e-10	0	1	1	0	0.4	1	1.1	0.9;
	328	1	1.85824967276e-09	1.39368725457e-09	3.89144993093e-11	0	1	1	0	0.4	1	1.1	0.9;
	332	1	0	0	1.52237272115e-10	0	1	1	0	0.4	1	1.1	0.9;
	333	1	1.48162247836e-09	1.11121685877e-09	7.72874666337e-11	0	1	1	0	0.4	1	1.1	0.9;
	337	1	0	0	1.38306080316e-10	0	1	1	0	0.4	1	1.1	0.9;
	338	1	1.48506365827e-09	1.1137977437e-09	7.31863260102e-11	0	1	1	0	0.4	1	1.1	0.9;
	342	1	0	0	1.12887529255e-10	0	1	1	0	0.4	1	1.1	0.9;
	343	1	1.90956862802e-09	1.43217647102e-09	4.28994739574e-11	0	1	1	0	0.4	1	1.1	0.9;
	347	1	0	0	1.28319339801e-10	0	1	1	0	0.4	1	1.1	0.9;
	348	1	1.9874331248e-09	1.4905748436e-09	4.75302920515e-11	0	1	1	0	0.4	1	1.1	0.9;
	352	1	0	0	1.14529954017e-10	0	1	1	0	0.4	1	1.1	0.9;
	353	1	1.98026707401e-09	1.48520030551e-09	2.90932018142e-11	0	1	1	0	0.4	1	1.1	0.9;
	357	1	0	0	1.21214329695e-10	0	1	1	0	0.4	1	1.1	0.9;
	358	1	1.40560169814e-09	1.05420127361e-09	3.88276527338e-11	0	1	1	0	0.4	1	1.1	0.9;
	362	1	0	0	1.15982624366e-10	0	1	1	0	0.4	1	1.1	0.9;
	363	1	1.73747256887e-09	1.30310442665e-09	4.19537700355e-11	0	1	1	0	0.4	1	1.1	0.9;
	367	1	0	0	1.22508137124e-10	0	1	1	0	0.4	1	1.1	0.9;
	368	1	1.50314833743e-09	1.12736125307e-09	5.90015517361e-11	0	1	1	0	0.4	1	1.1	0.9;
	372	1	0	0	1.50230754975e-10	0	1	1	0	0.4	1	1.1	0.9;
	373	1	1.6923013314e-09	1.26922599855e-09	8.1630739552e-11	0	1	1	0	0.4	1	1.1	0.9;
	377	1	0	0	1.11987017785e-10	0	1	1	0	0.4	1	1.1	0.9;
	378	1	1.62086493308e-09	1.21564869981e-09	3.43904023714e-11	0	1	1	0	0.4	1	1.1	0.9;
	382	1	0	0	1.02603843163e-10	0	1	1	0	0.4	1	1.1	0.9;
	383	1	1.41641687711e-09	1.06231265783e-09	6.46298415571e-11	0	1	1	0	0.4	1	1.1	0.9;
	387	1	0	0	1.12321222454e-10	0	1	1	0	0.4	1	1.1	0.9;
	388	1	1.60160025804e-09	1.20120019353e-09	4.809536335e-11	0	1	1	0	0.4	1	1.1	0.9;
	392	1	0	0	1.21694877047e-10	0	1	1	0	0.4	1	1.1	0.9;
	393	1	1.96024244715e-09	1.47018183537e-09	4.88769372375e-11	0	1	1	0	0.4	1	1.1	0.9;
	397	1	0	0	1.36899962828e-10	0	1	1	0	0.4	1	1.1	0.9;
	398	1	1.53396658304e-09	1.15047493728e-09	6.15256663877e-11	0	1	1	0	0.4	1	1.1	0.9;
	402	1	0	0	1.02212819158e-10	0	1	1	0	0.4	1	1.1	0.9;
	403	1	1.85717255165e-09	1.39287941374e-09	3.52429223939e-11	0	1	1	0	0.4	1	1.1	0.9;
	407	1	0	0	1.24321996504e-10	0	1	1	0	0.4	1	1.1	0.9;
	408	1	1.78375148879e-09	1.3378136166e-09	5.0260655047e-11	0	1	1	0	0.4	1	1.1	0.9;
	412	1	0	0	1.57356573589e-10	0	1	1	0	0.4	1	1.1	0.9;
	413	1	1.82397429729e-09	1.36798072297e-09	8.38520376354e-11	0	1	1	0	0.4	1	1.1	0.9;
	417	1	0	0	1.36413838433e-10	0	1	1	0	0.4	1	1.1	0.9;
	418	1	1.74617387024e-09	1.30963040268e-09	6.46600814951e-11	0	1	1	0	0.4	1	1.1	0.9;
	422	1	0	0	1.07370401369e-10	0	1	1	0	0.4	1	1.1	0.9;
	423	1	1.46608662182e-09	1.09956496636e-09	3.61804136348e-11	0	1	1	0	0.4	1	1.1	0.9;
	427	1	0	0	1.1987309984e-10	0	1	1	0	0.4	1	1.1	0.9;
	428	1	1.89982512975e-09	1.42486884731e-09	5.24231727287e-11	0	1	1	0	0.4	1	1.1	0.9;
	432	1	0	0	1.33512006622e-10	0	1	1	0	0.4	1	1.1	0.9;
	433	1	1.46295682449e-09	1.09721761837e-09	6.24497017568e-11	0	1	1	0	0.4	1	1.1	0.9;
	437	1	0	0	1.13766149384e-10	0	1	1	0	0.4	1	1.1	0.9;
	438	1	1.77070534074e-09	1.32802900556e-09	3.74347117388e-11	0	1	1	0	0.4	1	1.1	0.9;
	442	1	0	0	1.11704002011e-10	0	1	1	0	0.4	1	1.1	0.9;
	443	1	1.86940657078e-09	1.40205492809e-09	3.58043578239e-11	0	1	1	0	0.4	1	1.1	0.9;
	447	1	0	0	1.24318878467e-10	0	1	1	0	0.4	1	1.1	0.9;
	448	1	1.94498000964e-09	1.45873500723e-09	5.77577272552e-11	0	1	1	0	0.4	1	1.1	0.9;
	452	1	0	0	1.1617223848e-10	0	1	1	0	0.4	1	1.1	0.9;
	453	1	1.68742125724e-09	1.26556594293e-09	5.17427737461e-11	0	1	1	0	0.4	1	1.1	0.9;
	457	1	0	0	1.39263317288e-10	0	1	1	0	0.4	1	1.1	0.9;
	458	1	1.62838228351e-09	1.22128671263e-09	7.05864355932e-11	0	1	1	0	0.4	1	1.1	0.9;
	462	1	0	0	1.56971786794e-10	0	1	1	0	0.4	1	1.1	0.9;
	463	1	1.63060907472e-09	1.22295680604e-09	8.041686026e-11	0	1	1	0	0.4	1	1.1	0.9;
	467	1	0	0	1.32261295104e-10	0	1	1	0	0.4	1	1.1	0.9;
	468	1	1.83451785767e-09	1.37588839325e-09	5.07977932556e-11	0	1	1	0	0.4	1	1.1	0.9;
	472	1	0	0	1.25530316911e-10	0	1	1	0	0.4	1	1.1	0.9;
	473	1	1.75116562465e-09	1.31337421849e-09	5.54165261665e-11	0	1	1	0	0.4	1	1.1	0.9;
	477	1	0	0	1.0033547672e-10	0	1	1	0	0.4	1	1.1	0.9;
	478	1	1.51447673805e-09	1.13585755354e-09	4.01414771844e-11	0	1	1	0	0.4	1	1.1	0.9;
	482	1	0	0	9.35639852178e-11	0	1	1	0	0.4	1	1.1	0.9;
	483	1	1.58869019495e-09	1.19151764622e-09	3.13943902315e-11	0	1	1	0	0.4	1	1.1	0.9;
	487	1	0	0	1.1041972037e-10	0	1	1	0	0.4	1	1.1	0.9;
	488	1	1.55392092736e-09	1.16544069552e-09	4.85152175337e-11	0	1	1	0	0.4	1	1.1	0.9;
	492	1	0	0	1.34710856456e-10	0	1	1	0	0.4	1	1.1	0.9;
	493	1	1.59298454178e-09	1.19473840633e-09	7.5620880092e-11	0	1	1	0	0.4	1	1.1	0.9;
	497	1	0	0	1.50554263691e-10	0	1	1	0	0.4	1	1.1	0.9;
	498	1	1.71712689787e-09	1.28784517341e-09	7.87181134275e-11	0	1	1	0	0.4	1	1.1	0.9;
	502	1	0	0	1.23351716705e-10	0	1	1	0	0.4	1	1.1	0.9;
	503	1	1.59332443204e-09	1.19499332403e-09	4.09769401175e-11	0	1	1	0	0.4	1	1.1	0.9;
	507	1	0	0	1.28930390633e-10	0	1	1	0	0.4	1	1.1	0.9;
	508	1	1.73550172596e-09	1.30162629447e-09	5.7026726661e-11	0	1	1	0	0.4	1	1.1	0.9;
	512	1	0	0	1.20788693387e-10	0	1	1	0	0.4	1	1.1	0.9;
	513	1	1.3526832133e-09	1.01451240997e-09	4.98748396914e-11	0	1	1	0	0.4	1	1.1	0.9;
	517	1	0	0	1.2976583676e-10	0	1	1	0	0.4	1	1.1	0.9;
	518	1	1.44336315414e-09	1.0825223656e-09	4.7831049904e-11	0	1	1	0	0.4	1	1.1	0.9;
	522	1	0	0	1.37949160147e-10	0	1	1	0	0.4	1	1.1	0.9;
	523	1	1.93795257506e-09	1.45346443129e-09	5.62480541469e-11	0	1	1	0	0.4	1	1.1	0.9;
	527	1	0	0	9.5289186438e-11	0	1	1	0	0.4	1	1.1	0.9;
	528	1	1.61907517977e-09	1.21430638483e-09	2.70575184525e-11	0	1	1	0	0.4	1	1.1	0.9;
...
];

%% generator data
%	bus	Pg	Qg	Qmax	Qmin	Vg	mBase	status	Pmax	Pmin	Pc1	Pc2	Qc1min	Qc1max	Qc2min	Qc2max	ramp_agc	ramp_10	ramp_30	ramp_q	apf
mpc.gen = [
	2613	0	0	100000	-100000	1.05	100	1	100000	0	0	0	0	0	0	0	0	0	0	0	0;
];

%% branch data
%	fbus	tbus	r	x	b	rateA	rateB	rateC	ratio	angle	status	angmin	angmax
mpc.branch = [
	2613	1	0.00497518595105	0.0497518595105	0	0	0	0	0	0	1	-360	360;
	3	12	0.0603297553933	0.0986343619923	0.000146270947733	0	0	0	0	0	1	-360	360;
	12	15	0.0489037240806	0.0799537076238	0.0001185682591	0	0	0	0	0	1	-360	360;
	15	18	0.0477014590315	0.0779880996865	0.000115653338478	0	0	0	0	0	1	-360	360;
	18	21	0.0510322489918	0.0834336769231	0.00012372891911	0	0	0	0	0	1	-360	360;
	21	24	0.0605687871492	0.0990251599424	0.000146850485993	0	0	0	0	0	1	-360	360;
	24	27	0.0520729304738	0.0851351085525	0.000126252076475	0	0	0	0	0	1	-360	360;
	27	30	0.0616717575997	0.100828429092	0.000149524664465	0	0	0	0	0	1	-360	360;
	30	33	0.0480505206062	0.0785587876577	0.000116499646688	0	0	0	0	0	1	-360	360;
	33	36	0.0595137378598	0.0973002380883	0.000144292493532	0	0	0	0	0	1	-360	360;
	36	39	0.0485674551509	0.0794039346118	0.000117752966966	0	0	0	0	0	1	-360	360;
	3	42	0.0646721066115	0.105733761603	0.000156799083044	0	0	0	0	0	1	-360	360;
	42	45	0.0501094534916	0.081924979518	0.000121491579152	0	0	0	0	0	1	-360	360;
	45	48	0.068233634758	0.111556577461	0.000165434093976	0	0	0	0	0	1	-360	360;
	48	51	0.0520679680711	0.0851269954178	0.00012624004501	0	0	0	0	0	1	-360	360;
	51	54	0.0538347588623	0.08801555814	0.000130523671916	0	0	0	0	0	1	-360	360;
	54	57	0.0605265230914	0.098956061562	0.000146748015765	0	0	0	0	0	1	-360	360;
	57	60	0.0513099640035	0.0838877189263	0.000124402245857	0	0	0	0	0	1	-360	360;
	60	63	0.061443701907	0.100455576134	0.000148971737935	0	0	0	0	0	1	-360	360;
	63	66	0.0509496702163	0.0832986671791	0.000123528704876	0	0	0	0	0	1	-360	360;
	66	69	0.0472271681191	0.0772126716868	0.000114503408716	0	0	0	0	0	1	-360	360;
	3	72	0.0529069229897	0.086498620126	0.000128274111454	0	0	0	0	0	1	-360	360;
	72	75	0.0562023280591	0.0918863458745	0.000136263900564	0	0	0	0	0	1	-360	360;
	75	78	0.058033766621	0.0948806025708	0.000140704267551	0	0	0	0	0	1	-360	360;
	78	81	0.0548434401175	0.0896646719381	0.000132969243959	0	0	0	0	0	1	-360	360;
	81	84	0.0569946476546	0.0931817255306	0.000138184898543	0	0	0	0	0	1	-360	360;
	84	87	0.0600559095246	0.0981866457308	0.000145607001816	0	0	0	0	0	1	-360	360;
	87	90	0.054508967124	0.0891178351392	0.000132158306116	0	0	0	0	0	1	-360	360;
	90	93	0.0679103629169	0.111028053658	0.000164650313597	0	0	0	0	0	1	-360	360;
	93	96	0.0483326112682	0.079019983502	0.000117183582305	0	0	0	0	0	1	-360	360;
	96	99	0.0534897250979	0.0874514553187	0.000129687129229	0	0	0	0	0	1	-360	360;
	3	102	0.0675157926291	0.110382962552	0.000163693668413	0	0	0	0	0	1	-360	360;
	102	105	0.0631305645498	0.103213462677	0.000153061577117	0	0	0	0	0	1	-360	360;
	105	108	0.0525358809474	0.0858919958346	0.000127374511069	0	0	0	0	0	1	-360	360;
	108	111	0.0542608880592	0.0887122455571	0.000131556832437	0	0	0	0	0	1	-360	360;
	111	114	0.066708422729	0.109062976843	0.000161736180608	0	0	0	0	0	1	-360	360;
	114	117	0.0669508255146	0.109459286159	0.000162323892011	0	0	0	0	0	1	-360	360;
	117	120	0.0511874813792	0.0836874695564	0.000124105283779	0	0	0	0	0	1	-360	360;
	120	123	0.0476720789044	0.0779400655104	0.00011558210565	0	0	0	0	0	1	-360	360;
	123	126	0.0632190726699	0.103358166429	0.00015327616719	0	0	0	0	0	1	-360	360;
	126	129	0.0494886162051	0.0809099598274	0.00011998634417	0	0	0	0	0	1	-360	360;
	3	132	0.0669465941258	0.109452368174	0.000162313632907	0	0	0	0	0	1	-360	360;
	132	135	0.0528392295154	0.0863879466681	0.000128109986992	0	0	0	0	0	1	-360	360;
	135	138	0.0662768933633	0.108357460578	0.000160689927248	0	0	0	0	0	1	-360	360;
	138	141	0.0534419557062	0.0873733561546	0.000129571311186	0	0	0	0	0	1	-360	360;
	141	144	0.0458786477482	0.0750079479058	0.000111233888536	0	0	0	0	0	1	-360	360;
	144	147	0.0664096002973	0.108574425883	0.000161011678412	0	0	0	0	0	1	-360	360;
	147	150	0.0520794803192	0.0851458170298	0.000126267956733	0	0	0	0	0	1	-360	360;
	150	153	0.0670974683561	0.109699035566	0.000162679431119	0	0	0	0	0	1	-360	360;
	153	156	0.064171359949	0.104915080551	0.000155585010677	0	0	0	0	0	1	-360	360;
	156	159	0.0538125158078	0.0879791925111	0.000130469743094	0	0	0	0	0	1	-360	360;
	3	162	0.0611054753667	0.0999026025837	0.000148151699527	0	0	0	0	0	1	-360	360;
	162	165	0.0623591677358	0.101952290108	0.000151191306928	0	0	0	0	0	1	-360	360;
	165	168	0.0500619179072	0.0818472626102	0.000121376327981	0	0	0	0	0	1	-360	360;
	168	171	0.0562886415635	0.0920274616037	0.000136473169738	0	0	0	0	0	1	-360	360;
	171	174	0.0479521995018	0.0783980404552	0.000116261264798	0	0	0	0	0	1	-360	360;
	174	177	0.0678627715951	0.110950245624	0.000164534927289	0	0	0	0	0	1	-360	360;
	177	180	0.0550037498961	0.0899267657031	0.000133357918886	0	0	0	0	0	1	-360	360;
	180	183	0.0494774199177	0.0808916547862	0.000119959198501	0	0	0	0	0	1	-360	360;
	185	187	0.615533602579	0.236054148562	1.73024212208e-09	0	0	0	0	0	1	-360	360;
	187	188	13.5827729806	1.1338662662	4.08459400209e-09	0	0	0	0	0	1	-360	360;
	187	192	0.694372312177	0.266288410981	1.95185481003e-09	0	0	0	0	0	1	-360	360;
	192	193	11.4695104534	0.957454785674	3.44909641587e-09	0	0	0	0	0	1	-360	360;
	192	197	0.640317888501	0.245558801901	1.79990983037e-09	0	0	0	0	0	1	-360	360;
	197	198	5.64108638148	0.470908080541	1.69638023341e-09	0	0	0	0	0	1	-360	360;
	197	202	0.704452323538	0.270154046405	1.98018934803e-09	0	0	0	0	0	1	-360	360;
	202	203	4.25094881748	0.354861814329	1.27833985505e-09	0	0	0	0	0	1	-360	360;
	202	207	0.637773043156	0.244582866065	1.79275636451e-09	0	0	0	0	0	1	-360	360;
	207	208	13.5058925043	1.12744841775	4.06147460425e-09	0	0	0	0	0	1	-360	360;
	207	212	0.535628702299	0.205411007193	1.50563241166e-09	0	0	0	0	0	1	-360	360;
	212	213	5.59717536057	0.467242464883	1.68317536774e-09	0	0	0	0	0	1	-360	360;
	212	217	0.618972204464	0.237372835693	1.73990790441e-09	0	0	0	0	0	1	-360	360;
	217	218	13.7453332467	1.14743651451	4.13347891602e-09	0	0	0	0	0	1	-360	360;
	217	222	0.525233478039	0.201424489151	1.47641182191e-09	0	0	0	0	0	1	-360	360;
	222	223	4.47763359049	0.373785064945	1.34650820812e-09	0	0	0	0	0	1	-360	360;
	222	227	0.596465235339	0.22874152229	1.67664164915e-09	0	0	0	0	0	1	-360	360;
	227	228	6.40513015573	0.534689126043	1.92614249345e-09	0	0	0	0	0	1	-360	360;
	227	232	0.583395736977	0.223729433112	1.6399037741e-09	0	0	0	0	0	1	-360	360;
	232	233	5.00478147919	0.417790453915	1.50503144247e-09	0	0	0	0	0	1	-360	360;
	232	237	0.754222220414	0.289240560256	2.12009068181e-09	0	0	0	0	0	1	-360	360;
	237	238	13.6821352865	1.1421608587	4.1144741068e-09	0	0	0	0	0	1	-360	360;
	237	242	0.771494835323	0.295864524226	2.16864336154e-09	0	0	0	0	0	1	-360	360;
	242	243	4.38359214936	0.36593464899	1.31822818702e-09	0	0	0	0	0	1	-360	360;
	242	247	0.755314289833	0.289659363577	2.12316044843e-09	0	0	0	0	0	1	-360	360;
	247	248	13.0905668726	1.09277775632	3.93657841504e-09	0	0	0	0	0	1	-360	360;
	247	252	0.555619809332	0.213077499695	1.56182667191e-09	0	0	0	0	0	1	-360	360;
	252	253	12.5825627922	1.05037045918	3.78381208208e-09	0	0	0	0	0	1	-360	360;
	252	257	0.651202228345	0.249732893394	1.83050530589e-09	0	0	0	0	0	1	-360	360;
	257	258	10.794150165	0.901076883341	3.24600293952e-09	0	0	0	0	0	1	-360	360;
	257	262	0.756774476011	0.290219337888	2.12726497761e-09	0	0	0	0	0	1	-360	360;
	262	263	5.04157607705	0.420862002954	1.51609626656e-09	0	0	0	0	0	1	-360	360;
	262	267	0.657455087528	0.252130834537	1.84808186108e-09	0	0	0	0	0	1	-360	360;
	267	268	6.53000416402	0.545113391083	1.96369444444e-09	0	0	0	0	0	1	-360	360;
	267	272	0.567426307924	0.217605234592	1.59501430146e-09	0	0	0	0	0	1	-360	360;
	272	273	10.4316279942	0.870814162997	3.13698573909e-09	0	0	0	0	0	1	-360	360;
	272	277	0.748124146453	0.286901978494	2.10294922212e-09	0	0	0	0	0	1	-360	360;
	277	278	12.715805659	1.06149334197	3.82388070541e-09	0	0	0	0	0	1	-360	360;
	277	282	0.526352341163	0.201853567728	1.47955690464e-09	0	0	0	0	0	1	-360	360;
	282	283	7.18990643184	0.600200884745	2.16213940475e-09	0	0	0	0	0	1	-360	360;
	282	287	0.7058669589	0.270696552199	1.98416583555e-09	0	0	0	0	0	1	-360	360;
	287	288	9.54155454027	0.796512379014	2.86932399604e-09	0	0	0	0	0	1	-360	360;
	287	292	0.534375293969	0.204930331182	1.50210912735e-09	0	0	0	0	0	1	-360	360;
	292	293	13.1147408028	1.09479575397	3.94384796821e-09	0	0	0	0	0	1	-360	360;
	292	297	0.729908217621	0.279916258214	2.05174492194e-09	0	0	0	0	0	1	-360	360;
	297	298	9.87393126372	0.824258609841	2.96927589636e-09	0	0	0	0	0	1	-360	360;
	297	302	0.594376525107	0.227940512056	1.67077036218e-09	0	0	0	0	0	1	-360	360;
	302	303	13.2858941755	1.10908333987	3.99531699009e-09	0	0	0	0	0	1	-360	360;
	302	307	0.569094708622	0.218245058161	1.59970411393e-09	0	0	0	0	0	1	-360	360;
	307	308	6.283992501	0.524576765301	1.88971413389e-09	0	0	0	0	0	1	-360	360;
	307	312	0.765763033329	0.293666405985	2.15253147877e-09	0	0	0	0	0	1	-360	360;
	312	313	11.6740554951	0.974529850029	3.51060693746e-09	0	0	0	0	0	1	-360	360;
	312	317	0.76637305348	0.293900345752	2.15424622279e-09	0	0	0	0	0	1	-360	360;
	317	318	12.3348826056	1.02969454795	3.70933001527e-09	0	0	0	0	0	1	-360	360;
	317	322	0.704665351477	0.270235741586	1.98078816166e-09	0	0	0	0	0	1	-360	360;
	322	323	7.1751245763	0.598966921152	2.15769422419e-09	0	0	0	0	0	1	-360	360;
	322	327	0.723767949018	0.277561495012	2.03448485469e-09	0	0	0	0	0	1	-360	360;
	327	328	6.47024905657	0.540125138635	1.94572496546e-09	0	0	0	0	0	1	-360	360;
	327	332	0.739582946598	0.283626469812	2.07894022619e-09	0	0	0	0	0	1	-360	360;
	332	333	12.850458491	1.0727339262	3.86437333169e-09	0	0	0	0	0	1	-360	360;
	332	337	0.59358664834	0.22763759815	1.66855004789e-09	0	0	0	0	0	1	-360	360;
	337	338	12.1685686627	1.01581094924	3.65931630051e-09	0	0	0	0	0	1	-360	360;
	337	342	0.564730920494	0.216571566597	1.58743766739e-09	0	0	0	0	0	1	-360	360;
	342	343	7.13282416135	0.595435756078	2.14497369787e-09	0	0	0	0	0	1	-360	360;
	342	347	0.680181547691	0.260846321688	1.91196509751e-09	0	0	0	0	0	1	-360	360;
	347	348	7.90278258138	0.659710545924	2.37651460257e-09	0	0	0	0	0	1	-360	360;
	347	352	0.756853563634	0.290249667607	2.12748728998e-09	0	0	0	0	0	1	-360	360;
	352	353	4.83727826215	0.403807576666	1.45466009071e-09	0	0	0	0	0	1	-360	360;
	352	357	0.762852586309	0.292550263681	2.14435032017e-09	0	0	0	0	0	1	-360	360;
	357	358	6.45580922095	0.538919726271	1.94138263669e-09	0	0	0	0	0	1	-360	360;
	357	362	0.702600353118	0.269443824739	1.97498352788e-09	0	0	0	0	0	1	-360	360;
	362	363	6.97558354366	0.582309582775	2.09768850178e-09	0	0	0	0	0	1	-360	360;
	362	367	0.614187824086	0.235538049043	1.72645918866e-09	0	0	0	0	0	1	-360	360;
	367	368	9.81008984395	0.818929239147	2.9500775868e-09	0	0	0	0	0	1	-360	360;
	367	372	0.515435504141	0.197667013724	1.44887008076e-09	0	0	0	0	0	1	-360	360;
	372	373	13.572607253	1.13301764895	4.0815369776e-09	0	0	0	0	0	1	-360	360;
	372	377	0.704787206074	0.270282472232	1.98113069041e-09	0	0	0	0	0	1	-360	360;
	377	378	5.71803498563	0.477331616192	1.71952011857e-09	0	0	0	0	0	1	-360	360;
	377	382	0.675462518061	0.259036596732	1.89870008028e-09	0	0	0	0	0	1	-360	360;
	382	383	10.7458962285	0.897048728639	3.23149207786e-09	0	0	0	0	0	1	-360	360;
	185	387	0.594640800519	0.228041860393	1.67151323056e-09	0	0	0	0	0	1	-360	360;
	387	388	7.99673604605	0.667553617757	2.4047681675e-09	0	0	0	0	0	1	-360	360;
	387	392	0.547776608258	0.210069670157	1.53977972466e-09	0	0	0	0	0	1	-360	360;
	392	393	8.12668703599	0.678401700396	2.44384686187e-09	0	0	0	0	0	1	-360	360;
	392	397	0.747472428026	0.286652047641	2.1011172658e-09	0	0	0	0	0	1	-360	360;
	397	398	10.2297701876	0.853963424356	3.07628331938e-09	0	0	0	0	0	1	-360	360;
	397	402	0.593247799437	0.22750765124	1.66759755619e-09	0	0	0	0	0	1	-360	360;
	402	403	5.85978207139	0.489164416394	1.76214611969e-09	0	0	0	0	0	1	-360	360;
	402	407	0.597979176657	0.229322111436	1.68089728204e-09	0	0	0	0	0	1	-360	360;
	407	408	8.35675549403	0.697607415154	2.51303275235e-09	0	0	0	0	0	1	-360	360;
	407	412	0.71938686527	0.275881370662	2.0221697908e-09	0	0	0	0	0	1	-360	360;
	412	413	13.9419387897	1.16384880331	4.19260188177e-09	0	0	0	0	0	1	-360	360;
	412	417	0.588074999286	0.225523907493	1.65305700686e-09	0	0	0	0	0	1	-360	360;
	417	418	10.7509241727	0.897468452674	3.23300407475e-09	0	0	0	0	0	1	-360	360;
	417	422	0.688244885168	0.263938572468	1.93463084003e-09	0	0	0	0	0	1	-360	360;
	422	423	6.01565718028	0.502176599398	1.80902068174e-09	0	0	0	0	0	1	-360	360;
	422	427	0.5780469551	0.221678201228	1.62486854667e-09	0	0	0	0	0	1	-360	360;
	427	428	8.71631371111	0.727622709797	2.62115863644e-09	0	0	0	0	0	1	-360	360;
	427	432	0.621718560332	0.238426049836	1.74762780887e-09	0	0	0	0	0	1	-360	360;
	432	433	10.3834080111	0.866788842664	3.12248508784e-09	0	0	0	0	0	1	-360	360;
	432	437	0.64230212102	0.24631974544	1.80548743437e-09	0	0	0	0	0	1	-360	360;
	437	438	6.22420723921	0.519585995621	1.87173558694e-09	0	0	0	0	0	1	-360	360;
	437	442	0.715443254743	0.274369015168	2.01108444791e-09	0	0	0	0	0	1	-360	360;
	442	443	5.95313100626	0.496957023131	1.79021789119e-09	0	0	0	0	0	1	-360	360;
	442	447	0.634621595278	0.243374301102	1.78389776144e-09	0	0	0	0	0	1	-360	360;
	447	448	9.60328121692	0.80166521463	2.88788636276e-09	0	0	0	0	0	1	-360	360;
	447	452	0.549334819681	0.210667236674	1.54415979916e-09	0	0	0	0	0	1	-360	360;
	452	453	8.60318490428	0.718178913748	2.58713868731e-09	0	0	0	0	0	1	-360	360;
	452	457	0.596704224047	0.2288331733	1.67731343755e-09	0	0	0	0	0	1	-360	360;
	457	458	11.7362892086	0.9797250122	3.52932177966e-09	0	0	0	0	0	1	-360	360;
	457	462	0.624885744891	0.23964064974	1.75653064717e-09	0	0	0	0	0	1	-360	360;
	462	463	13.3707775627	1.11616925741	4.020843013e-09	0	0	0	0	0	1	-360	360;
	462	467	0.736834939269	0.282572622341	2.07121567953e-09	0	0	0	0	0	1	-360	360;
	467	468	8.44606457032	0.705062781522	2.53988966278e-09	0	0	0	0	0	1	-360	360;
	467	472	0.712197023707	0.273124101324	2.00195941289e-09	0	0	0	0	0	1	-360	360;
	472	473	9.21401360705	0.769169831545	2.77082630833e-09	0	0	0	0	0	1	-360	360;
	472	477	0.53495196362	0.205151481194	1.50373012434e-09	0	0	0	0	0	1	-360	360;
	477	478	6.67425662649	0.557155335777	2.00707385922e-09	0	0	0	0	0	1	-360	360;
	477	482	0.535748746847	0.205457043694	1.50596985243e-09	0	0	0	0	0	1	-360	360;
	482	483	5.2198930317	0.435747592212	1.56971951157e-09	0	0	0	0	0	1	-360	360;
	482	487	0.570092865855	0.218627846614	1.60250989688e-09	0	0	0	0	0	1	-360	360;
	487	488	8.06654450265	0.673381106308	2.42576087669e-09	0	0	0	0	0	1	-360	360;
	487	492	0.531033420475	0.20364873892	1.49271524493e-09	0	0	0	0	0	1	-360	360;
	492	493	12.5733579195	1.04960205241	3.7810440046e-09	0	0	0	0	0	1	-360	360;
	492	497	0.52002947886	0.199428780728	1.46178357327e-09	0	0	0	0	0	1	-360	360;
	497	498	13.0883297532	1.09259100548	3.93590567138e-09	0	0	0	0	0	1	-360	360;
	497	502	0.757755976789	0.290595738672	2.13002393988e-09	0	0	0	0	0	1	-360	360;
	502	503	6.81316765839	0.568751387135	2.04884700588e-09	0	0	0	0	0	1	-360	360;
	502	507	0.707485284762	0.271317172312	1.98871488951e-09	0	0	0	0	0	1	-360	360;
	507	508	9.48173896432	0.79151907876	2.85133633305e-09	0	0	0	0	0	1	-360	360;
	507	512	0.571501070915	0.219167886419	1.60646830907e-09	0	0	0	0	0	1	-360	360;
	512	513	8.29260661675	0.692252378442	2.49374198457e-09	0	0	0	0	0	1	-360	360;
	512	517	0.689879035395	0.264565261147	1.93922437569e-09	0	0	0	0	0	1	-360	360;
	517	518	7.95278908914	0.663885002224	2.3915524952e-09	0	0	0	0	0	1	-360	360;
	517	522	0.767535909211	0.29434629528	2.15751496711e-09	0	0	0	0	0	1	-360	360;
	522	523	9.3522703809	0.780711266579	2.81240270734e-09	0	0	0	0	0	1	-360	360;
	522	527	0.685722437385	0.262971225988	1.92754033288e-09	0	0	0	0	0	1	-360	360;
	527	528	4.49880857643	0.375552715946	1.35287592262e-09	0	0	0	0	0	1	-360	360;
	527	532	0.527948293123	0.202465607557	1.48404306639e-09	0	0	0	0	0	1	-360	360;
	532	533	7.68096353578	0.641193477769	2.30980946479e-09	0	0	0	0	0	1	-360	360;
	532	537	0.711016649783	0.272671433655	1.99864142558e-09	0	0	0	0	0	1	-360	360;
...
];
